             Standard Receiver A/D converter channels


  channel code  volt. Description
  # (hex) name  Div. 
                Ratio 

    00  FRONT   1     Temperature probe: box front
    01  REAR    1     Temperature probe: box rear
    02  LO      1     Temperature probe: LO
    03  DCAL    1     Temperature probe: delay cal
    04  INLET   1     Temperature probe: inlet air(after heat)
    05  RET     1     Temperature probe: return air
    06  SUP     1     Temperature probe: supply air (cold)
    07  2.73V   2     -2.73 volt ref. for temperature probes
    08  SIF     1     S-band IF power level
    09  XIF     1     X-band IF power level
    0A  KIF     1     Secondary S-band IF power level
    0B  SLO     1     S-band LO power level
    0C  XLO     1     X-band LO power level
    0D  KLO     1     Secondary S-band 2020 MHz LO power level 
    0E  LO5MHZ  1     5 MHz power level to LO
    0F          1     spare
    10  28V     101   +28 volt power supply voltage
    11  24V     101   +24 volt power supply voltage(delay cal)
    12  20V     11    +20 volt power supply voltage (LO)
    13  15V     11    +15 volt power supply voltage
    14  5V      11    + 5 volt power supply 
    15  -15V    11    -15 volt power supply voltage
    16  GROUND  1     ground reference
    17  PRES    4.9   dewar pressure
    18  X1BIAS  4.9   1st stage X-band FET bias current
    19  X2BIAS  4.9   2nd stage X-band FET bias current
    1A  X3BIAS  4.9   3rd stage X-band FET bias current
    1B  S1BIAS  4.9   1st stage S-band FET bias current
    1C  S2BIAS  4.9   2nd stage S-band FET bias current
    1D  S3BIAS  4.9   3rd stage S-band FET bias current
    1E  20K     1     temperature diode, 20K station in dewar
    1F  70K     1     temperature diode, 70K station in dewar

Note: This table applies only to standard S/X receivers. Channel
assignments for your station's receiver may be found in control
file rxdef.ctl. Conversion from volts to temperature for channels
0 through 6 is 100 deg C/V.